Info: SIMULATION PARAMETERS:
Info: TIMESTEP               2
Info: NUMBER OF STEPS        0
Info: STEPS PER CYCLE        10
Info: PERIODIC CELL BASIS 1  100 0 0
Info: PERIODIC CELL BASIS 2  0 100 0
Info: PERIODIC CELL BASIS 3  0 0 100
Info: PERIODIC CELL CENTER   0 0 0
Info: WRAPPING WATERS AROUND PERIODIC BOUNDARIES ON OUTPUT.
Info: WRAPPING ALL CLUSTERS AROUND PERIODIC BOUNDARIES ON OUTPUT.
Info: FIRST LDB TIMESTEP     50
Info: LAST LDB TIMESTEP     -1
Info: HOM BACKGROUND SCALING 1
Info: PME BACKGROUND SCALING 1
Info: MIN ATOMS PER PATCH    40
Info: EMPTY PATCH LOAD       40 ATOMS
Info: VELOCITY FILE          ../minimize/minimized.restart.vel
Info: CENTER OF MASS MOVING INITIALLY? NO
Info: REMOVING CENTER OF MASS DRIFT DURING SIMULATION
Info: DIELECTRIC             1
Info: EXCLUDE                SCALED ONE-FOUR
Info: 1-4 ELECTROSTATICS SCALED BY 1
Info: MODIFIED 1-4 VDW PARAMETERS WILL BE USED
Info: DCD FILENAME           MDequil.dcd
Info: DCD FREQUENCY          5000
Info: DCD FIRST STEP         5000
Info: DCD FILE WILL CONTAIN UNIT CELL DATA
Info: XST FILENAME           MDequil.xst
Info: XST FREQUENCY          5000
Info: NO VELOCITY DCD OUTPUT
Info: NO FORCE DCD OUTPUT
Info: OUTPUT FILENAME        MDequil
Info: BINARY OUTPUT FILES WILL BE USED
Info: RESTART FILENAME       MDequil.restart
Info: RESTART FREQUENCY      50000
Info: BINARY RESTART FILES WILL BE USED
Info: SWITCHING ACTIVE
Info: SWITCHING ON           10
Info: SWITCHING OFF          12
Info: PAIRLIST DISTANCE      14
Info: PAIRLIST SHRINK RATE   0.01
Info: PAIRLIST GROW RATE     0.01
Info: PAIRLIST TRIGGER       0.3
Info: PAIRLISTS PER CYCLE    2
Info: PAIRLISTS ENABLED
Info: MARGIN                 0
Info: HYDROGEN GROUP CUTOFF  2.5
Info: PATCH DIMENSION        16.5
Info: ENERGY OUTPUT STEPS    5000
Info: ENERGY EVALUATION STEPS    5000
Info: OUTPUT ENERGY PRECISION 4
Info: CROSSTERM ENERGY INCLUDED IN DIHEDRAL
Info: TIMING OUTPUT STEPS    50000
Info: PRESSURE OUTPUT STEPS  5000
Info: LANGEVIN DYNAMICS ACTIVE
Info: LANGEVIN TEMPERATURE   300
Info: LANGEVIN USING BBK INTEGRATOR
Info: LANGEVIN DAMPING COEFFICIENT IS 1 INVERSE PS
Info: LANGEVIN DYNAMICS NOT APPLIED TO HYDROGENS
Info: PARTICLE MESH EWALD (PME) ACTIVE
Info: PME TOLERANCE               1e-06
Info: PME EWALD COEFFICIENT       0.257952
Info: PME INTERPOLATION ORDER     4
Info: PME GRID DIMENSIONS         108 108 108
Info: PME MAXIMUM GRID SPACING    1
Info: FULL ELECTROSTATIC EVALUATION FREQUENCY      2
Info: USING VERLET I (r-RESPA) MTS SCHEME.
Info: C1 SPLITTING OF LONG RANGE ELECTROSTATICS
Info: PLACING ATOMS IN PATCHES BY HYDROGEN GROUPS
Info: RIGID BONDS TO HYDROGEN : ALL
Info:         ERROR TOLERANCE : 1e-08
Info:          MAX ITERATIONS : 100
Info: RIGID WATER USING SETTLE ALGORITHM
Info: RANDOM NUMBER SEED     1745490728
Info: USE HYDROGEN BONDS?    NO
Info: COORDINATE PDB         ../input/system.pdb
Info: STRUCTURE FILE         ../input/system.psf
Info: PARAMETER file: CHARMM format!
Info: PARAMETERS             ../input/par_all36m_prot.inp
Info: PARAMETERS             ../input/par_water_ions.inp
Info: USING ARITHMETIC MEAN TO COMBINE L-J SIGMA PARAMETERS
Info: BINARY COORDINATES     ../minimize/minimized.restart.coor
Info: SUMMARY OF PARAMETERS:
Info: 135 BONDS
Info: 365 ANGLES
Info: 706 DIHEDRAL
Info: 35 IMPROPER
Info: 6 CROSSTERM
Info: 68 VDW
Info: 3 VDW_PAIRS
Info: 0 NBTHOLE_PAIRS
Info: STRUCTURE SUMMARY:
Info: 2941 ATOMS
Info: 2377 BONDS
Info: 2827 ANGLES
Info: 3293 DIHEDRALS
Info: 212 IMPROPERS
Info: 74 CROSSTERMS
Info: 0 EXCLUSIONS
Info: 2339 RIGID BONDS
Info: 6484 DEGREES OF FREEDOM
Info: 1172 HYDROGEN GROUPS
Info: 4 ATOMS IN LARGEST HYDROGEN GROUP
Info: 1172 MIGRATION GROUPS
Info: 4 ATOMS IN LARGEST MIGRATION GROUP
Info: TOTAL MASS = 18833.6 amu
Info: TOTAL CHARGE = 1.0021e-06 e
Info: MASS DENSITY = 0.0312747 g/cm^3
Info: ATOM DENSITY = 0.002941 atoms/A^3
Info: ADDED 8468 IMPLICIT EXCLUSIONS
Info: NONBONDED TABLE R-SQUARED SPACING: 0.0625
Info: NONBONDED TABLE SIZE: 769 POINTS
Info: REMOVING COM VELOCITY 0 0 0
TCL: Running for 500000 steps
ETITLE: TS BOND ANGLE DIHED IMPRP ELECT VDW BOUNDARY MISC KINETIC TOTAL TEMP POTENTIAL TOTAL3 TEMPAVG PRESSURE GPRESSURE VOLUME PRESSAVG GPRESSAVG
ENERGY: 0 59.9887 215.2431 675.9278 11.2988 -10805.7402 914.2255 0.0000 0.0000 0.0000 -8929.0562 0.0000 -8929.0562 -8929.0204 0.0000 52.7852 53.8641 1000000.0000 52.7852 53.8641
ENERGY: 70000 235.3555 697.0945 718.1232 34.8567 -9051.5080 295.9528 0.0000 0.0000 1883.9620 -5186.1633 292.4284 -7070.1254 -5172.8757 296.0246 31.2994 31.8961 1000000.0000 -1.0605 -1.0539
ENERGY: 140000 231.1149 680.6637 735.3455 47.6016 -9019.5758 226.8441 0.0000 0.0000 1899.2040 -5198.8020 294.7942 -7098.0060 -5184.8983 299.4039 -29.3190 -28.5239 1000000.0000 0.4155 0.4180
ENERGY: 205000 254.5593 712.8368 715.9874 44.2210 -9139.0780 292.5870 0.0000 0.0000 1968.0091 -5150.8775 305.4742 -7118.8866 -5136.3475 300.2991 -2.8748 -3.7700 1000000.0000 -0.6742 -0.6760
ENERGY: 275000 227.3046 709.5680 716.2779 45.7357 -8981.4502 219.2473 0.0000 0.0000 1945.6105 -5117.7062 301.9975 -7063.3167 -5102.7587 303.6922 12.5899 13.0582 1000000.0000 1.2238 1.2236
ENERGY: 345000 231.1880 723.5775 709.1122 32.0254 -8998.9181 233.1037 0.0000 0.0000 1900.9992 -5168.9121 295.0729 -7069.9113 -5158.6591 301.3214 -43.5247 -43.3906 1000000.0000 -2.7400 -2.7412
